// Generated for: spectre
// Generated on: Apr 28 17:08:23 2026
// Design library name: ese6680
// Design cell name: Project3_MDAC_test
// Design view name: schematic
simulator lang=spectre
global 0
