// Generated for: spectre
// Generated on: Apr 21 16:10:31 2026
// Design library name: ese6680
// Design cell name: Project3_MDAC_test
// Design view name: schematic
simulator lang=spectre
global 0
