// Generated for: spectre
// Generated on: Mar 26 12:16:33 2026
// Design library name: ese6680
// Design cell name: Project2_Test_Static_PartC
// Design view name: schematic
simulator lang=spectre
global 0
