// Generated for: spectre
// Generated on: May  1 10:31:48 2026
// Design library name: ESE6680_PROJECT3
// Design cell name: boot_tha_test
// Design view name: schematic
simulator lang=spectre
global 0
