// Generated for: spectre
// Generated on: May  1 07:22:56 2026
// Design library name: ESE6680_PROJECT3
// Design cell name: comparator_test
// Design view name: schematic
simulator lang=spectre
global 0
