// Generated for: spectre
// Generated on: Apr 28 16:09:17 2026
// Design library name: ESE6680_PROJECT3
// Design cell name: comparator_test
// Design view name: schematic
simulator lang=spectre
global 0
