// Generated for: spectre
// Generated on: Feb 19 16:39:06 2026
// Design library name: ese6680
// Design cell name: Test_Opamp_Hw3_CMRR
// Design view name: schematic
simulator lang=spectre
global 0
