// Generated for: spectre
// Generated on: Mar 19 14:17:15 2026
// Design library name: ESE_6680
// Design cell name: project_2
// Design view name: schematic
simulator lang=spectre
global 0
