// Generated for: spectre
// Generated on: May  1 14:47:59 2026
// Design library name: ESE6680_PROJECT3
// Design cell name: clock_test
// Design view name: schematic
simulator lang=spectre
global 0
