// Generated for: spectre
// Generated on: Feb 22 23:05:34 2026
// Design library name: ESE_6680
// Design cell name: Current_Mirror
// Design view name: schematic
simulator lang=spectre
global 0
