simulator lang=spectre
include "ami06N.scs"
