// Generated for: spectre
// Generated on: Apr  2 09:59:06 2026
// Design library name: SEMICONDUCTOR_MEMORY
// Design cell name: ITIR_cell
// Design view name: schematic
simulator lang=spectre
global 0
