// Generated for: spectre
// Generated on: Apr 21 16:06:30 2026
// Design library name: ESE6680_PROJECT3
// Design cell name: Test1
// Design view name: schematic
simulator lang=spectre
global 0
