// Generated for: spectre
// Generated on: Apr 29 08:59:34 2026
// Design library name: ESE6680_PROJECT3
// Design cell name: mdac_test
// Design view name: schematic
simulator lang=spectre
global 0
