// Generated for: spectre
// Generated on: Feb 18 18:11:16 2026
// Design library name: ese6680
// Design cell name: Project1_Test
// Design view name: schematic
simulator lang=spectre
global 0
