// Generated for: spectre
// Generated on: May  1 10:45:12 2026
// Design library name: ESE6680_PROJECT3
// Design cell name: one_bit_test_bench
// Design view name: schematic
simulator lang=spectre
global 0
